<?xml version="1.0" encoding="UTF-8"?>
<edges>
    <edge id="west_in" from="west" to="center" numLanes="3" speed="13.89"/>
    <edge id="west_out" from="center" to="west" numLanes="3" speed="13.89"/>
    <edge id="east_in" from="east" to="center" numLanes="3" speed="13.89"/>
    <edge id="east_out" from="center" to="east" numLanes="3" speed="13.89"/>
    <edge id="north_in" from="north" to="center" numLanes="3" speed="13.89"/>
    <edge id="north_out" from="center" to="north" numLanes="3" speed="13.89"/>
    <edge id="south_in" from="south" to="center" numLanes="3" speed="13.89"/>
    <edge id="south_out" from="center" to="south" numLanes="3" speed="13.89"/>
</edges>
