<?xml version="1.0" encoding="UTF-8"?>

<!-- generated on 2026-07-13 17:01:55.794915 by Eclipse SUMO randomTrips.py v1_27_1+0000-7717f2379d9
<configuration>
    <net-file value="osm.net.xml.gz"/>
    <output-trip-file value="osm.passenger.trips.xml"/>
    <route-file value="osm.passenger.rou.xml"/>
    <prefix value="veh"/>
    <trip-attributes value="departLane=&quot;best&quot;"/>
    <fringe-start-attributes value="departSpeed=&quot;max&quot;"/>
    <vehicle-class value="passenger"/>
    <lanes value="True"/>
    <fringe-factor value="5"/>
    <allow-fringe.min-length value="1000.0"/>
    <edge-permission value="passenger"/>
    <via-edge-types value="highway.motorway,highway.motorway_link,highway.trunk_link,highway.primary_link,highway.secondary_link,highway.tertiary_link"/>
    <min-distance value="300.0"/>
    <min-distance.fringe value="10.0"/>
    <remove-loops value="True"/>
    <insertion-density value="12.0"/>
</configuration>
-->

<routes xmlns:xsi="http://www.w3.org/2001/XMLSchema-instance" xsi:noNamespaceSchemaLocation="http://sumo.dlr.de/xsd/routes_file.xsd">
    <vType id="veh_passenger" vClass="passenger"/>
    <trip id="veh0" depart="0.00" from="463727048#0" to="-182456553#1" departLane="best" type="veh_passenger" departSpeed="max"/>
    <trip id="veh1" depart="2.03" from="182456553#5" to="182451957#6" departLane="best" type="veh_passenger"/>
    <trip id="veh2" depart="4.06" from="569338307#7" to="-259317430#5" departLane="best" type="veh_passenger" departSpeed="max"/>
    <trip id="veh3" depart="6.09" from="289320392#0" to="-182456553#1" departLane="best" type="veh_passenger" departSpeed="max"/>
    <trip id="veh4" depart="8.12" from="182451957#4" to="37587459#1" departLane="best" type="veh_passenger"/>
    <trip id="veh5" depart="10.15" from="-255201484#2" to="182451957#10" departLane="best" type="veh_passenger"/>
    <trip id="veh6" depart="12.19" from="463727048#0" to="418051108#4" departLane="best" type="veh_passenger" departSpeed="max"/>
    <trip id="veh7" depart="14.22" from="182451957#6" to="463727048#2" departLane="best" type="veh_passenger"/>
    <trip id="veh8" depart="16.25" from="527604149#6" to="-182456553#1" departLane="best" type="veh_passenger" departSpeed="max"/>
    <trip id="veh9" depart="18.28" from="527604149#16" to="527604145#13" departLane="best" type="veh_passenger"/>
    <trip id="veh10" depart="20.31" from="255201484#4" to="1448365450#1" departLane="best" type="veh_passenger"/>
    <trip id="veh11" depart="22.34" from="768157899#5" to="289320392#3" departLane="best" type="veh_passenger"/>
    <trip id="veh12" depart="24.37" from="-37587459#2" to="-334971326" departLane="best" type="veh_passenger" departSpeed="max"/>
    <trip id="veh13" depart="26.40" from="527604149#9" to="52244438#5" departLane="best" type="veh_passenger"/>
    <trip id="veh14" depart="28.43" from="527604149#16" to="527604145#17" departLane="best" type="veh_passenger"/>
    <trip id="veh15" depart="30.46" from="334971327#0" to="93483886#2" departLane="best" type="veh_passenger" departSpeed="max"/>
    <trip id="veh16" depart="32.49" from="268840712#7" to="463727041#1" departLane="best" type="veh_passenger" departSpeed="max"/>
    <trip id="veh17" depart="34.53" from="527604149#6" to="52244438#5" departLane="best" type="veh_passenger" departSpeed="max"/>
    <trip id="veh18" depart="36.56" from="569338307#14" to="463727046#5" departLane="best" type="veh_passenger"/>
    <trip id="veh19" depart="38.59" from="527604145#0" to="-182456553#3" departLane="best" type="veh_passenger" departSpeed="max"/>
    <trip id="veh20" depart="40.62" from="182451957#7" to="255201484#7" departLane="best" type="veh_passenger"/>
    <trip id="veh21" depart="42.65" from="-37587459#2" to="182456553#3" departLane="best" type="veh_passenger" departSpeed="max"/>
    <trip id="veh22" depart="44.68" from="-37587459#2" to="255201484#4" departLane="best" type="veh_passenger" departSpeed="max"/>
    <trip id="veh23" depart="46.71" from="463727048#0" to="334971324#2" departLane="best" type="veh_passenger" departSpeed="max"/>
    <trip id="veh24" depart="48.74" from="268840712#7" to="182451957#2" departLane="best" type="veh_passenger" departSpeed="max"/>
    <trip id="veh25" depart="50.77" from="182456553#3" to="768157899#1" departLane="best" type="veh_passenger"/>
    <trip id="veh26" depart="52.80" from="463727048#0" to="52244438#5" departLane="best" type="veh_passenger" departSpeed="max"/>
    <trip id="veh27" depart="54.83" from="1448365451#0" to="527604145#17" departLane="best" type="veh_passenger" departSpeed="max"/>
    <trip id="veh28" depart="56.86" from="1448365451#0" to="334971324#3" departLane="best" type="veh_passenger" departSpeed="max"/>
    <trip id="veh29" depart="58.90" from="969677244#0" to="527604137#3" departLane="best" type="veh_passenger"/>
    <trip id="veh30" depart="60.93" from="334971327#0" to="527604145#10" departLane="best" type="veh_passenger" departSpeed="max"/>
    <trip id="veh31" depart="62.96" from="527604149#9" to="527604146#3" departLane="best" type="veh_passenger"/>
    <trip id="veh32" depart="64.99" from="182451957#7" to="-182456553#1" departLane="best" type="veh_passenger"/>
    <trip id="veh33" depart="67.02" from="232406875#4" to="232406875#8" departLane="best" type="veh_passenger" departSpeed="max"/>
    <trip id="veh34" depart="69.05" from="182451957#2" to="768157899#3" departLane="best" type="veh_passenger"/>
    <trip id="veh35" depart="71.08" from="569338307#7" to="255201484#7" departLane="best" type="veh_passenger" departSpeed="max"/>
    <trip id="veh36" depart="73.11" from="463727048#0" to="334971324#7" departLane="best" type="veh_passenger" departSpeed="max"/>
    <trip id="veh37" depart="75.14" from="768157882#3" to="334971326" departLane="best" type="veh_passenger" departSpeed="max"/>
    <trip id="veh38" depart="77.17" from="182456553#0" to="182456553#9" departLane="best" type="veh_passenger" departSpeed="max"/>
    <trip id="veh39" depart="79.20" from="334971327#0" to="232406875#5" departLane="best" type="veh_passenger" departSpeed="max"/>
    <trip id="veh40" depart="81.24" from="418051108#3" to="569338307#12" departLane="best" type="veh_passenger"/>
    <trip id="veh41" depart="83.27" from="289320392#0" to="182451957#6" departLane="best" type="veh_passenger" departSpeed="max"/>
    <trip id="veh42" depart="85.30" from="969677244#2" to="37587459#1" departLane="best" type="veh_passenger"/>
    <trip id="veh43" depart="87.33" from="-37587459#2" to="-182456553#3" departLane="best" type="veh_passenger" departSpeed="max"/>
    <trip id="veh44" depart="89.36" from="-37587459#2" to="527604137#1" departLane="best" type="veh_passenger" departSpeed="max"/>
    <trip id="veh45" depart="91.39" from="527604149#11" to="334971324#8" departLane="best" type="veh_passenger"/>
    <trip id="veh46" depart="93.42" from="-255201484#8" to="334971324#3" departLane="best" type="veh_passenger" departSpeed="max"/>
    <trip id="veh47" depart="95.45" from="969677244#2" to="418051108#1" departLane="best" type="veh_passenger"/>
    <trip id="veh48" depart="97.48" from="93483886#0" to="527604149#18" departLane="best" type="veh_passenger"/>
    <trip id="veh49" depart="99.51" from="-182456553#6" to="527604145#17" departLane="best" type="veh_passenger"/>
    <trip id="veh50" depart="101.54" from="527604137#1" to="418051108#3" departLane="best" type="veh_passenger"/>
    <trip id="veh51" depart="103.58" from="182456553#0" to="527604137#3" departLane="best" type="veh_passenger" departSpeed="max"/>
    <trip id="veh52" depart="105.61" from="-37587459#2" to="334971324#8" departLane="best" type="veh_passenger" departSpeed="max"/>
    <trip id="veh53" depart="107.64" from="334971324#0" to="768157899#5" departLane="best" type="veh_passenger" departSpeed="max"/>
    <trip id="veh54" depart="109.67" from="569338307#7" to="232406875#5" departLane="best" type="veh_passenger" departSpeed="max"/>
    <trip id="veh55" depart="111.70" from="334971324#5" to="182451957#10" departLane="best" type="veh_passenger"/>
    <trip id="veh56" depart="113.73" from="768157882#3" to="527604149#18" departLane="best" type="veh_passenger" departSpeed="max"/>
    <trip id="veh57" depart="115.76" from="232406875#4" to="527604137#3" departLane="best" type="veh_passenger" departSpeed="max"/>
    <trip id="veh58" depart="117.79" from="457344957#3" to="1448365450#1" departLane="best" type="veh_passenger" departSpeed="max"/>
    <trip id="veh59" depart="119.82" from="527604147#0" to="418051108#3" departLane="best" type="veh_passenger"/>
    <trip id="veh60" depart="121.85" from="527604148#1" to="418051108#3" departLane="best" type="veh_passenger"/>
    <trip id="veh61" depart="123.88" from="-1210107401" to="259317430#9" departLane="best" type="veh_passenger"/>
    <trip id="veh62" depart="125.92" from="-232406107#2" to="768157882#6" departLane="best" type="veh_passenger"/>
    <trip id="veh63" depart="127.95" from="569338307#7" to="527604149#11" departLane="best" type="veh_passenger" departSpeed="max"/>
    <trip id="veh64" depart="129.98" from="232406875#4" to="-232406107#2" departLane="best" type="veh_passenger" departSpeed="max"/>
    <trip id="veh65" depart="132.01" from="569338307#7" to="768157899#3" departLane="best" type="veh_passenger" departSpeed="max"/>
    <trip id="veh66" depart="134.04" from="-259317430#8" to="527604146#3" departLane="best" type="veh_passenger"/>
    <trip id="veh67" depart="136.07" from="527604147#0" to="1448365450#1" departLane="best" type="veh_passenger"/>
    <trip id="veh68" depart="138.10" from="334971324#2" to="418051108#4" departLane="best" type="veh_passenger"/>
    <trip id="veh69" depart="140.13" from="182456553#0" to="527604149#18" departLane="best" type="veh_passenger" departSpeed="max"/>
    <trip id="veh70" depart="142.16" from="289320392#3" to="182451957#4" departLane="best" type="veh_passenger"/>
    <trip id="veh71" depart="144.19" from="334971327#0" to="527604145#17" departLane="best" type="veh_passenger" departSpeed="max"/>
    <trip id="veh72" depart="146.22" from="182451957#0" to="255201484#7" departLane="best" type="veh_passenger" departSpeed="max"/>
    <trip id="veh73" depart="148.26" from="969677244#2" to="527604137#3" departLane="best" type="veh_passenger"/>
    <trip id="veh74" depart="150.29" from="334971324#0" to="37587459#1" departLane="best" type="veh_passenger" departSpeed="max"/>
    <trip id="veh75" depart="152.32" from="-463727041#2" to="182451957#6" departLane="best" type="veh_passenger" departSpeed="max"/>
    <trip id="veh76" depart="154.35" from="255201484#1" to="463727048#2" departLane="best" type="veh_passenger"/>
    <trip id="veh77" depart="156.38" from="-259317430#9" to="527604137#1" departLane="best" type="veh_passenger"/>
    <trip id="veh78" depart="158.41" from="182451957#7" to="569338307#14" departLane="best" type="veh_passenger"/>
    <trip id="veh79" depart="160.44" from="569338307#14" to="-255201484#5" departLane="best" type="veh_passenger"/>
    <trip id="veh80" depart="162.47" from="182456553#0" to="527604137#3" departLane="best" type="veh_passenger" departSpeed="max"/>
    <trip id="veh81" depart="164.50" from="182451957#4" to="1448365450#1" departLane="best" type="veh_passenger"/>
    <trip id="veh82" depart="166.53" from="768157882#6" to="463727046#3" departLane="best" type="veh_passenger"/>
    <trip id="veh83" depart="168.56" from="334971324#0" to="527604146#3" departLane="best" type="veh_passenger" departSpeed="max"/>
    <trip id="veh84" depart="170.59" from="527604149#16" to="182451957#10" departLane="best" type="veh_passenger"/>
    <trip id="veh85" depart="172.63" from="-37587459#2" to="334971324#8" departLane="best" type="veh_passenger" departSpeed="max"/>
    <trip id="veh86" depart="174.66" from="289320392#3" to="337335327#4" departLane="best" type="veh_passenger"/>
    <trip id="veh87" depart="176.69" from="93483886#3" to="-334971326" departLane="best" type="veh_passenger"/>
    <trip id="veh88" depart="178.72" from="289320392#0" to="334971323#1" departLane="best" type="veh_passenger" departSpeed="max"/>
    <trip id="veh89" depart="180.75" from="569338307#14" to="232406107#0" departLane="best" type="veh_passenger"/>
    <trip id="veh90" depart="182.78" from="182451957#0" to="334971324#8" departLane="best" type="veh_passenger" departSpeed="max"/>
    <trip id="veh91" depart="184.81" from="289320392#0" to="255201484#4" departLane="best" type="veh_passenger" departSpeed="max"/>
    <trip id="veh92" depart="186.84" from="182456553#0" to="569338307#9" departLane="best" type="veh_passenger" departSpeed="max"/>
    <trip id="veh93" depart="188.87" from="334971324#0" to="527604149#18" departLane="best" type="veh_passenger" departSpeed="max"/>
    <trip id="veh94" depart="190.90" from="334971327#0" to="-182456553#6" departLane="best" type="veh_passenger" departSpeed="max"/>
    <trip id="veh95" depart="192.93" from="969677244#2" to="527604149#13" departLane="best" type="veh_passenger"/>
    <trip id="veh96" depart="194.97" from="93483886#0" to="768157882#6" departLane="best" type="veh_passenger"/>
    <trip id="veh97" depart="197.00" from="569338307#12" to="182451957#10" departLane="best" type="veh_passenger"/>
    <trip id="veh98" depart="199.03" from="334971324#3" to="182451957#4" departLane="best" type="veh_passenger"/>
    <trip id="veh99" depart="201.06" from="289320392#0" to="-232406107#2" departLane="best" type="veh_passenger" departSpeed="max"/>
    <trip id="veh100" depart="203.09" from="268840712#7" to="969677244#0" departLane="best" type="veh_passenger" departSpeed="max"/>
    <trip id="veh101" depart="205.12" from="182456553#0" to="527604146#3" departLane="best" type="veh_passenger" departSpeed="max"/>
    <trip id="veh102" depart="207.15" from="334971324#0" to="334971324#8" departLane="best" type="veh_passenger" departSpeed="max"/>
    <trip id="veh103" depart="209.18" from="768157899#5" to="969677244#2" departLane="best" type="veh_passenger"/>
    <trip id="veh104" depart="211.21" from="334971327#0" to="527604145#17" departLane="best" type="veh_passenger" departSpeed="max"/>
    <trip id="veh105" depart="213.24" from="1448365451#0" to="255201484#7" departLane="best" type="veh_passenger" departSpeed="max"/>
    <trip id="veh106" depart="215.27" from="93483886#0" to="463727047" departLane="best" type="veh_passenger"/>
    <trip id="veh107" depart="217.31" from="334971327#0" to="527604146#0" departLane="best" type="veh_passenger" departSpeed="max"/>
    <trip id="veh108" depart="219.34" from="-255201484#8" to="463727048#2" departLane="best" type="veh_passenger" departSpeed="max"/>
    <trip id="veh109" depart="221.37" from="334971324#7" to="527604149#18" departLane="best" type="veh_passenger"/>
    <trip id="veh110" depart="223.40" from="1448365451#0" to="768157900" departLane="best" type="veh_passenger" departSpeed="max"/>
    <trip id="veh111" depart="225.43" from="-37587459#2" to="182451957#10" departLane="best" type="veh_passenger" departSpeed="max"/>
    <trip id="veh112" depart="227.46" from="182456553#0" to="1210107397" departLane="best" type="veh_passenger" departSpeed="max"/>
    <trip id="veh113" depart="229.49" from="569338307#7" to="182456553#9" departLane="best" type="veh_passenger" departSpeed="max"/>
    <trip id="veh114" depart="231.52" from="418051108#4" to="52244438#5" departLane="best" type="veh_passenger"/>
    <trip id="veh115" depart="233.55" from="289320392#0" to="463727048#2" departLane="best" type="veh_passenger" departSpeed="max"/>
    <trip id="veh116" depart="235.58" from="334971327#0" to="768157882#8" departLane="best" type="veh_passenger" departSpeed="max"/>
    <trip id="veh117" depart="237.61" from="182451957#0" to="527604145#17" departLane="best" type="veh_passenger" departSpeed="max"/>
    <trip id="veh118" depart="239.65" from="182456553#0" to="334971324#7" departLane="best" type="veh_passenger" departSpeed="max"/>
    <trip id="veh119" depart="241.68" from="52244438#1" to="255201484#7" departLane="best" type="veh_passenger"/>
    <trip id="veh120" depart="243.71" from="232406875#4" to="527604146#0" departLane="best" type="veh_passenger" departSpeed="max"/>
    <trip id="veh121" depart="245.74" from="-334971326" to="182451957#4" departLane="best" type="veh_passenger"/>
    <trip id="veh122" depart="247.77" from="182456553#0" to="768157882#8" departLane="best" type="veh_passenger" departSpeed="max"/>
    <trip id="veh123" depart="249.80" from="569338307#7" to="527604149#18" departLane="best" type="veh_passenger" departSpeed="max"/>
    <trip id="veh124" depart="251.83" from="268840712#7" to="1448365450#1" departLane="best" type="veh_passenger" departSpeed="max"/>
    <trip id="veh125" depart="253.86" from="527604149#6" to="527604145#15" departLane="best" type="veh_passenger" departSpeed="max"/>
    <trip id="veh126" depart="255.89" from="463727046#1" to="969677244#0" departLane="best" type="veh_passenger"/>
    <trip id="veh127" depart="257.92" from="463727048#0" to="-182456553#1" departLane="best" type="veh_passenger" departSpeed="max"/>
    <trip id="veh128" depart="259.95" from="527604149#6" to="255201484#7" departLane="best" type="veh_passenger" departSpeed="max"/>
    <trip id="veh129" depart="261.99" from="463727048#2" to="768157899#1" departLane="best" type="veh_passenger"/>
    <trip id="veh130" depart="264.02" from="1210107400#0" to="1210107397" departLane="best" type="veh_passenger"/>
    <trip id="veh131" depart="266.05" from="-37587459#2" to="463727041#1" departLane="best" type="veh_passenger" departSpeed="max"/>
    <trip id="veh132" depart="268.08" from="182456553#3" to="52244438#5" departLane="best" type="veh_passenger"/>
    <trip id="veh133" depart="270.11" from="527604145#0" to="182451957#2" departLane="best" type="veh_passenger" departSpeed="max"/>
    <trip id="veh134" depart="272.14" from="463727048#0" to="232406875#5" departLane="best" type="veh_passenger" departSpeed="max"/>
    <trip id="veh135" depart="274.17" from="334971324#3" to="569338307#14" departLane="best" type="veh_passenger"/>
    <trip id="veh136" depart="276.20" from="527604149#9" to="-259317430#9" departLane="best" type="veh_passenger"/>
    <trip id="veh137" depart="278.23" from="289320392#3" to="255201484#4" departLane="best" type="veh_passenger"/>
    <trip id="veh138" depart="280.26" from="-182456553#10" to="527604146#3" departLane="best" type="veh_passenger"/>
    <trip id="veh139" depart="282.29" from="463727048#0" to="232406875#5" departLane="best" type="veh_passenger" departSpeed="max"/>
    <trip id="veh140" depart="284.32" from="527604145#15" to="463727041#1" departLane="best" type="veh_passenger"/>
    <trip id="veh141" depart="286.36" from="289320392#3" to="-182456553#1" departLane="best" type="veh_passenger"/>
    <trip id="veh142" depart="288.39" from="-334971326" to="527604149#18" departLane="best" type="veh_passenger"/>
    <trip id="veh143" depart="290.42" from="569338307#9" to="418051108#4" departLane="best" type="veh_passenger"/>
    <trip id="veh144" depart="292.45" from="527604149#6" to="463727048#2" departLane="best" type="veh_passenger" departSpeed="max"/>
    <trip id="veh145" depart="294.48" from="1448365451#0" to="1210107401" departLane="best" type="veh_passenger" departSpeed="max"/>
    <trip id="veh146" depart="296.51" from="232406875#4" to="569338307#12" departLane="best" type="veh_passenger" departSpeed="max"/>
    <trip id="veh147" depart="298.54" from="527604149#13" to="527604149#18" departLane="best" type="veh_passenger"/>
    <trip id="veh148" depart="300.57" from="569338307#7" to="182451957#4" departLane="best" type="veh_passenger" departSpeed="max"/>
    <trip id="veh149" depart="302.60" from="182456553#0" to="-457344957#3" departLane="best" type="veh_passenger" departSpeed="max"/>
    <trip id="veh150" depart="304.63" from="527604148#1" to="527604149#18" departLane="best" type="veh_passenger"/>
    <trip id="veh151" depart="306.66" from="289320392#0" to="52244438#5" departLane="best" type="veh_passenger" departSpeed="max"/>
    <trip id="veh152" depart="308.70" from="1448365451#0" to="768157882#6" departLane="best" type="veh_passenger" departSpeed="max"/>
    <trip id="veh153" depart="310.73" from="569338307#15" to="93483886#2" departLane="best" type="veh_passenger"/>
    <trip id="veh154" depart="312.76" from="527604149#6" to="527604149#18" departLane="best" type="veh_passenger" departSpeed="max"/>
    <trip id="veh155" depart="314.79" from="-232406107#7" to="527604145#17" departLane="best" type="veh_passenger"/>
    <trip id="veh156" depart="316.82" from="232406875#8" to="768157882#8" departLane="best" type="veh_passenger"/>
    <trip id="veh157" depart="318.85" from="527604149#16" to="527604149#18" departLane="best" type="veh_passenger"/>
    <trip id="veh158" depart="320.88" from="527604149#6" to="232406875#8" departLane="best" type="veh_passenger" departSpeed="max"/>
    <trip id="veh159" depart="322.91" from="527604149#11" to="-457344957#3" departLane="best" type="veh_passenger"/>
    <trip id="veh160" depart="324.94" from="569338307#7" to="527604149#18" departLane="best" type="veh_passenger" departSpeed="max"/>
    <trip id="veh161" depart="326.97" from="182451957#6" to="527604148#1" departLane="best" type="veh_passenger"/>
    <trip id="veh162" depart="329.00" from="334971324#0" to="255201484#7" departLane="best" type="veh_passenger" departSpeed="max"/>
    <trip id="veh163" depart="331.04" from="527604149#13" to="182451957#7" departLane="best" type="veh_passenger"/>
    <trip id="veh164" depart="333.07" from="-232406107#7" to="182451957#10" departLane="best" type="veh_passenger"/>
    <trip id="veh165" depart="335.10" from="232406875#5" to="527604149#18" departLane="best" type="veh_passenger"/>
    <trip id="veh166" depart="337.13" from="93483886#0" to="255201484#4" departLane="best" type="veh_passenger"/>
    <trip id="veh167" depart="339.16" from="463727048#0" to="334971324#7" departLane="best" type="veh_passenger" departSpeed="max"/>
    <trip id="veh168" depart="341.19" from="93483886#3" to="418051108#3" departLane="best" type="veh_passenger"/>
    <trip id="veh169" depart="343.22" from="768157882#8" to="1210107397" departLane="best" type="veh_passenger"/>
    <trip id="veh170" depart="345.25" from="93483886#0" to="182451957#10" departLane="best" type="veh_passenger"/>
    <trip id="veh171" depart="347.28" from="768157900" to="232406875#8" departLane="best" type="veh_passenger"/>
    <trip id="veh172" depart="349.31" from="-37587459#2" to="334971324#8" departLane="best" type="veh_passenger" departSpeed="max"/>
    <trip id="veh173" depart="351.34" from="527604145#11" to="255201484#7" departLane="best" type="veh_passenger"/>
    <trip id="veh174" depart="353.38" from="457344957#3" to="37587459#1" departLane="best" type="veh_passenger" departSpeed="max"/>
    <trip id="veh175" depart="355.41" from="268840712#8" to="463727046#5" departLane="best" type="veh_passenger"/>
    <trip id="veh176" depart="357.44" from="182456553#0" to="527604145#17" departLane="best" type="veh_passenger" departSpeed="max"/>
    <trip id="veh177" depart="359.47" from="-1210107401" to="768157882#6" departLane="best" type="veh_passenger"/>
    <trip id="veh178" depart="361.50" from="334971327#0" to="527604145#17" departLane="best" type="veh_passenger" departSpeed="max"/>
    <trip id="veh179" depart="363.53" from="268840712#7" to="-255201484#5" departLane="best" type="veh_passenger" departSpeed="max"/>
    <trip id="veh180" depart="365.56" from="463727048#2" to="289320392#3" departLane="best" type="veh_passenger"/>
    <trip id="veh181" depart="367.59" from="232406875#4" to="527604149#16" departLane="best" type="veh_passenger" departSpeed="max"/>
    <trip id="veh182" depart="369.62" from="527604145#10" to="255201484#7" departLane="best" type="veh_passenger"/>
    <trip id="veh183" depart="371.65" from="232406875#4" to="334971324#8" departLane="best" type="veh_passenger" departSpeed="max"/>
    <trip id="veh184" depart="373.68" from="289320392#0" to="255201484#7" departLane="best" type="veh_passenger" departSpeed="max"/>
    <trip id="veh185" depart="375.72" from="1210107397" to="334971324#8" departLane="best" type="veh_passenger"/>
    <trip id="veh186" depart="377.75" from="569338307#9" to="52244438#5" departLane="best" type="veh_passenger"/>
    <trip id="veh187" depart="379.78" from="232406875#4" to="418051108#4" departLane="best" type="veh_passenger" departSpeed="max"/>
    <trip id="veh188" depart="381.81" from="-1210107401" to="255201484#7" departLane="best" type="veh_passenger"/>
    <trip id="veh189" depart="383.84" from="334971324#0" to="463727047" departLane="best" type="veh_passenger" departSpeed="max"/>
    <trip id="veh190" depart="385.87" from="463727048#0" to="337335327#2" departLane="best" type="veh_passenger" departSpeed="max"/>
    <trip id="veh191" depart="387.90" from="334971324#0" to="182451957#4" departLane="best" type="veh_passenger" departSpeed="max"/>
    <trip id="veh192" depart="389.93" from="334971324#0" to="569338307#12" departLane="best" type="veh_passenger" departSpeed="max"/>
    <trip id="veh193" depart="391.96" from="527604149#13" to="182451957#10" departLane="best" type="veh_passenger"/>
    <trip id="veh194" depart="393.99" from="463727048#0" to="289320392#3" departLane="best" type="veh_passenger" departSpeed="max"/>
    <trip id="veh195" depart="396.02" from="527604149#6" to="527604146#0" departLane="best" type="veh_passenger" departSpeed="max"/>
    <trip id="veh196" depart="398.05" from="52244438#1" to="182451957#6" departLane="best" type="veh_passenger"/>
    <trip id="veh197" depart="400.09" from="182451957#0" to="-182456553#1" departLane="best" type="veh_passenger" departSpeed="max"/>
    <trip id="veh198" depart="402.12" from="182456553#0" to="337335327#8" departLane="best" type="veh_passenger" departSpeed="max"/>
    <trip id="veh199" depart="404.15" from="569338307#12" to="-255201484#5" departLane="best" type="veh_passenger"/>
    <trip id="veh200" depart="406.18" from="289320392#0" to="527604137#1" departLane="best" type="veh_passenger" departSpeed="max"/>
    <trip id="veh201" depart="408.21" from="182451957#0" to="527604145#13" departLane="best" type="veh_passenger" departSpeed="max"/>
    <trip id="veh202" depart="410.24" from="334971324#5" to="182456553#8" departLane="best" type="veh_passenger"/>
    <trip id="veh203" depart="412.27" from="463727048#0" to="-182456553#1" departLane="best" type="veh_passenger" departSpeed="max"/>
    <trip id="veh204" depart="414.30" from="527604146#0" to="527604146#3" departLane="best" type="veh_passenger"/>
    <trip id="veh205" depart="416.33" from="-37587459#2" to="334971324#8" departLane="best" type="veh_passenger" departSpeed="max"/>
    <trip id="veh206" depart="418.36" from="182451957#0" to="768157900" departLane="best" type="veh_passenger" departSpeed="max"/>
    <trip id="veh207" depart="420.39" from="334971326" to="-182456553#6" departLane="best" type="veh_passenger"/>
    <trip id="veh208" depart="422.43" from="182456553#0" to="527604149#16" departLane="best" type="veh_passenger" departSpeed="max"/>
    <trip id="veh209" depart="424.46" from="334971324#0" to="527604147#0" departLane="best" type="veh_passenger" departSpeed="max"/>
    <trip id="veh210" depart="426.49" from="463727048#2" to="969677244#0" departLane="best" type="veh_passenger"/>
    <trip id="veh211" depart="428.52" from="418051108#4" to="768157899#5" departLane="best" type="veh_passenger"/>
    <trip id="veh212" depart="430.55" from="569338307#7" to="52244438#5" departLane="best" type="veh_passenger" departSpeed="max"/>
    <trip id="veh213" depart="432.58" from="527604145#0" to="37587459#1" departLane="best" type="veh_passenger" departSpeed="max"/>
    <trip id="veh214" depart="434.61" from="527604149#6" to="418051108#4" departLane="best" type="veh_passenger" departSpeed="max"/>
    <trip id="veh215" depart="436.64" from="334971324#0" to="232406875#5" departLane="best" type="veh_passenger" departSpeed="max"/>
    <trip id="veh216" depart="438.67" from="182456553#0" to="527604137#3" departLane="best" type="veh_passenger" departSpeed="max"/>
    <trip id="veh217" depart="440.70" from="527604147#0" to="418051108#1" departLane="best" type="veh_passenger"/>
    <trip id="veh218" depart="442.73" from="463727047" to="255201484#1" departLane="best" type="veh_passenger"/>
    <trip id="veh219" depart="444.77" from="-334971326" to="255201484#7" departLane="best" type="veh_passenger"/>
    <trip id="veh220" depart="446.80" from="182456553#3" to="255201484#7" departLane="best" type="veh_passenger"/>
    <trip id="veh221" depart="448.83" from="334971327#0" to="1448365450#1" departLane="best" type="veh_passenger" departSpeed="max"/>
    <trip id="veh222" depart="450.86" from="182451957#7" to="527604145#13" departLane="best" type="veh_passenger"/>
    <trip id="veh223" depart="452.89" from="527604145#0" to="-232406107#7" departLane="best" type="veh_passenger" departSpeed="max"/>
    <trip id="veh224" depart="454.92" from="289320392#0" to="418051108#4" departLane="best" type="veh_passenger" departSpeed="max"/>
    <trip id="veh225" depart="456.95" from="289320392#0" to="182451957#2" departLane="best" type="veh_passenger" departSpeed="max"/>
    <trip id="veh226" depart="458.98" from="289320392#0" to="569338307#14" departLane="best" type="veh_passenger" departSpeed="max"/>
    <trip id="veh227" depart="461.01" from="418051108#3" to="527604145#13" departLane="best" type="veh_passenger"/>
    <trip id="veh228" depart="463.04" from="569338307#14" to="527604146#3" departLane="best" type="veh_passenger"/>
    <trip id="veh229" depart="465.07" from="268840712#7" to="-182456553#1" departLane="best" type="veh_passenger" departSpeed="max"/>
    <trip id="veh230" depart="467.11" from="259317430#4" to="527604146#2" departLane="best" type="veh_passenger" departSpeed="max"/>